Version 4
SHEET 1 2200 2316
WIRE 304 1296 192 1296
WIRE 320 1296 304 1296
WIRE 192 1328 192 1296
WIRE 320 1360 320 1296
WIRE 320 1488 320 1456
FLAG 192 1488 0
FLAG 320 1488 0
FLAG 304 1296 X
SYMBOL ZZZ\\Source\\IEC61000_4_2 160 1392 R0
SYMATTR InstName U1
SYMATTR SpiceLine Level=4 TD=1u
SYMBOL ZZZ\\spark_gap\\spark_gap_AB 320 1408 R0
WINDOW 38 39 -14 Left 2
WINDOW 3 39 14 Left 2
WINDOW 123 39 42 Left 2
SYMATTR InstName U2
SYMATTR Value Vb_min={3000*P*d+135}
SYMATTR Value2 R0=1 Ron=10m V_fall=10 Tau=5u Vexp=130
TEXT 70 1512 Left 2 !.tran 0 1.5u 0.9u 10n
TEXT 392 1304 Left 2 !.param P=1 d=0.1
