Version 4
SHEET 1 880 680
WIRE -448 48 -480 48
WIRE -320 48 -368 48
WIRE -96 48 -240 48
WIRE -32 48 -96 48
WIRE 192 48 64 48
WIRE -96 80 -96 48
WIRE 192 96 192 48
WIRE -480 112 -480 48
WIRE -96 176 -96 144
WIRE 192 192 192 176
WIRE -480 256 -480 192
FLAG -480 256 0
FLAG 192 192 0
FLAG -96 176 0
SYMBOL ZZZ\\spark_gap\\spark_gap_AB 16 48 R270
WINDOW 38 39 -14 Left 2
WINDOW 3 39 14 Left 2
WINDOW 123 39 42 Left 2
SYMATTR Value Vb_min=5.8k
SYMATTR Value2 R0=1 Ron=10m V_fall=10 Tau=5u Vexp=130
SYMATTR InstName U1
SYMBOL bv -480 96 R0
SYMATTR InstName B1
SYMATTR Value V=6k
SYMBOL res 176 80 R0
SYMATTR InstName R1
SYMATTR Value 10k
SYMBOL cap -112 80 R0
SYMATTR InstName C1
SYMATTR Value 25n
SYMBOL ind -224 32 R90
WINDOW 0 5 56 VBottom 2
WINDOW 3 32 56 VTop 2
SYMATTR InstName L1
SYMATTR Value 0.008
SYMBOL res -352 32 R90
WINDOW 0 0 56 VBottom 2
WINDOW 3 32 56 VTop 2
SYMATTR InstName R2
SYMATTR Value 0.01
TEXT -512 -304 Left 2 !.tran 1u
