Version 4
SHEET 1 880 680
WIRE 176 128 32 128
WIRE 224 128 176 128
WIRE 352 128 320 128
WIRE 464 128 432 128
WIRE 592 128 464 128
WIRE 176 144 176 128
WIRE 32 160 32 128
WIRE 32 256 32 240
WIRE 176 256 176 208
WIRE 176 256 32 256
WIRE 384 256 176 256
WIRE 464 256 464 192
WIRE 464 256 384 256
WIRE 592 256 592 208
WIRE 592 256 464 256
WIRE 384 272 384 256
FLAG 384 272 0
SYMBOL ZZZ\\spark_gap\\sparkMC 272 128 R270
WINDOW 0 32 0 VTop 2
SYMATTR InstName U1
SYMATTR Value VTHRES=45k VARC=10 ISUS=500M RNEG=-1
SYMBOL cap 160 144 R0
SYMATTR InstName C1
SYMATTR Value 221.3p
SYMBOL res 448 112 R90
WINDOW 0 0 56 VBottom 2
WINDOW 3 32 56 VTop 2
SYMATTR InstName R1
SYMATTR Value 10k
SYMBOL res 576 112 R0
SYMATTR InstName R2
SYMATTR Value 150
SYMBOL cap 448 128 R0
SYMATTR InstName C2
SYMATTR Value 46.3p
SYMBOL voltage 32 144 R0
SYMATTR InstName V1
SYMATTR Value 50k
TEXT -2 296 Left 2 !.tran 10u
