Version 4
SHEET 1 2544 680
WIRE 192 -32 0 -32
WIRE 288 -32 192 -32
WIRE 480 -32 368 -32
WIRE 576 -32 480 -32
WIRE 720 -32 656 -32
WIRE 832 -32 720 -32
WIRE 992 -32 912 -32
WIRE 1120 -32 992 -32
WIRE 1440 -32 1216 -32
WIRE 192 16 192 -32
WIRE 304 16 192 16
WIRE 480 16 480 -32
WIRE 576 16 480 16
WIRE 720 16 720 -32
WIRE 832 16 720 16
WIRE 992 48 992 -32
WIRE 1440 64 1440 -32
WIRE 480 80 480 16
WIRE 720 80 720 16
WIRE 0 96 0 -32
WIRE 192 96 192 16
WIRE 304 112 304 16
WIRE 576 112 576 16
WIRE 832 112 832 16
WIRE 1440 176 1440 144
WIRE 400 224 400 112
WIRE 432 224 400 224
WIRE 672 224 672 112
WIRE 688 224 672 224
WIRE 928 224 928 112
WIRE 960 224 928 224
WIRE 0 272 0 176
WIRE 192 272 192 160
WIRE 192 272 0 272
WIRE 288 272 192 272
WIRE 432 272 432 224
WIRE 432 272 368 272
WIRE 480 272 480 144
WIRE 480 272 432 272
WIRE 576 272 480 272
WIRE 688 272 688 224
WIRE 688 272 656 272
WIRE 720 272 720 144
WIRE 720 272 688 272
WIRE 960 272 960 224
WIRE 960 272 720 272
WIRE 992 272 992 112
WIRE 992 272 960 272
WIRE 1440 272 1440 256
WIRE 1440 272 992 272
WIRE 992 304 992 272
FLAG 992 304 0
SYMBOL cap 976 48 R0
SYMATTR InstName Ccharge1
SYMATTR Value 0.81p
SYMBOL res 1424 48 R0
SYMATTR InstName R1
SYMATTR Value 10k
SYMBOL sg_model 1168 -32 R0
SYMATTR InstName X1
SYMBOL cap 704 80 R0
SYMATTR InstName Ceq1
SYMATTR Value 221.3p
SYMBOL res 672 -48 R90
WINDOW 0 0 56 VBottom 2
WINDOW 3 32 56 VTop 2
SYMATTR InstName Rcharge1
SYMATTR Value 10
SYMBOL res 1424 160 R0
SYMATTR InstName R2
SYMATTR Value 0.1
SYMBOL res 672 256 R90
WINDOW 0 0 56 VBottom 2
WINDOW 3 32 56 VTop 2
SYMATTR InstName R3
SYMATTR Value 10
SYMBOL cap 464 80 R0
SYMATTR InstName Ceq2
SYMATTR Value 221.3p
SYMBOL cap 176 96 R0
SYMATTR InstName Ceq3
SYMATTR Value 221.3p
SYMBOL res 384 -48 R90
WINDOW 0 0 56 VBottom 2
WINDOW 3 32 56 VTop 2
SYMATTR InstName Rcharge2
SYMATTR Value 10
SYMBOL res 384 256 R90
WINDOW 0 0 56 VBottom 2
WINDOW 3 32 56 VTop 2
SYMATTR InstName R4
SYMATTR Value 10
SYMBOL voltage 0 80 R0
SYMATTR InstName V1
SYMATTR Value 200k
SYMBOL ind 928 -48 R90
WINDOW 0 5 56 VBottom 2
WINDOW 3 32 56 VTop 2
SYMATTR InstName L1
SYMATTR Value 0.008
TEXT 408 -168 Left 2 !.tran 0 20u 0
