Version 4
SHEET 1 880 680
WIRE -1280 -16 -1328 -16
WIRE -1120 -16 -1200 -16
WIRE -1040 -16 -1120 -16
WIRE -864 -16 -960 -16
WIRE -768 -16 -864 -16
WIRE -624 -16 -688 -16
WIRE -544 -16 -624 -16
WIRE -400 -16 -464 -16
WIRE -320 -16 -400 -16
WIRE -176 -16 -240 -16
WIRE -64 -16 -176 -16
WIRE 96 -16 16 -16
WIRE 176 -16 96 -16
WIRE 368 -16 272 -16
WIRE -1120 16 -1120 -16
WIRE -1040 16 -1120 16
WIRE -864 16 -864 -16
WIRE -784 16 -864 16
WIRE -624 16 -624 -16
WIRE -560 16 -624 16
WIRE -400 16 -400 -16
WIRE -336 16 -400 16
WIRE 368 32 368 -16
WIRE -1328 48 -1328 -16
WIRE 96 48 96 -16
WIRE -1120 64 -1120 16
WIRE -864 64 -864 16
WIRE -624 64 -624 16
WIRE -400 64 -400 16
WIRE -176 64 -176 -16
WIRE -1040 96 -1040 16
WIRE -896 96 -944 96
WIRE -784 96 -784 16
WIRE -656 96 -688 96
WIRE -560 96 -560 16
WIRE -432 96 -464 96
WIRE -336 96 -336 16
WIRE -208 96 -240 96
WIRE -1328 192 -1328 128
WIRE -1120 192 -1120 128
WIRE -1120 192 -1328 192
WIRE -1040 192 -1120 192
WIRE -896 192 -896 96
WIRE -896 192 -960 192
WIRE -864 192 -864 128
WIRE -864 192 -896 192
WIRE -768 192 -864 192
WIRE -656 192 -656 96
WIRE -656 192 -688 192
WIRE -624 192 -624 128
WIRE -624 192 -656 192
WIRE -544 192 -624 192
WIRE -432 192 -432 96
WIRE -432 192 -464 192
WIRE -400 192 -400 128
WIRE -400 192 -432 192
WIRE -320 192 -400 192
WIRE -208 192 -208 96
WIRE -208 192 -240 192
WIRE -176 192 -176 128
WIRE -176 192 -208 192
WIRE 96 192 96 112
WIRE 96 192 -176 192
WIRE 240 192 96 192
WIRE 368 192 368 112
WIRE 368 192 240 192
WIRE 240 240 240 192
FLAG 240 240 0
SYMBOL cap -1136 64 R0
SYMATTR InstName C1
SYMATTR Value 663.9p
SYMBOL cap -880 64 R0
SYMATTR InstName C2
SYMATTR Value 663.9p
SYMBOL cap -640 64 R0
SYMATTR InstName C3
SYMATTR Value 663.9p
SYMBOL cap -416 64 R0
SYMATTR InstName C4
SYMATTR Value 663.9p
SYMBOL cap -192 64 R0
SYMATTR InstName C
SYMATTR Value 663.9p
SYMBOL res -944 -32 R90
WINDOW 0 0 56 VBottom 2
WINDOW 3 32 56 VTop 2
SYMATTR InstName R1
SYMATTR Value 500k
SYMBOL res -672 -32 R90
WINDOW 0 0 56 VBottom 2
WINDOW 3 32 56 VTop 2
SYMATTR InstName R2
SYMATTR Value 500k
SYMBOL res -448 -32 R90
WINDOW 0 0 56 VBottom 2
WINDOW 3 32 56 VTop 2
SYMATTR InstName R3
SYMATTR Value 500k
SYMBOL res -224 -32 R90
WINDOW 0 0 56 VBottom 2
WINDOW 3 32 56 VTop 2
SYMATTR InstName R4
SYMATTR Value 500k
SYMBOL res -944 176 R90
WINDOW 0 0 56 VBottom 2
WINDOW 3 32 56 VTop 2
SYMATTR InstName R5
SYMATTR Value 500k
SYMBOL res -672 176 R90
WINDOW 0 0 56 VBottom 2
WINDOW 3 32 56 VTop 2
SYMATTR InstName R6
SYMATTR Value 500k
SYMBOL res -448 176 R90
WINDOW 0 0 56 VBottom 2
WINDOW 3 32 56 VTop 2
SYMATTR InstName R7
SYMATTR Value 500k
SYMBOL res -224 176 R90
WINDOW 0 0 56 VBottom 2
WINDOW 3 32 56 VTop 2
SYMATTR InstName R8
SYMATTR Value 500k
SYMBOL sg_model -992 96 R0
SYMATTR InstName X1
SYMBOL sg_model -736 96 R0
SYMATTR InstName X2
SYMBOL sg_model -512 96 R0
SYMATTR InstName X3
SYMBOL sg_model -288 96 R0
SYMATTR InstName X4
SYMBOL sg_model 224 -16 R0
SYMATTR InstName X5
SYMBOL ind 32 -32 R90
WINDOW 0 5 56 VBottom 2
WINDOW 3 32 56 VTop 2
SYMATTR InstName L1
SYMATTR Value 0.008
SYMBOL cap 80 48 R0
SYMATTR InstName C5
SYMATTR Value 0.81p
SYMBOL res 352 16 R0
SYMATTR InstName R9
SYMATTR Value 10k
SYMBOL voltage -1328 32 R0
SYMATTR InstName V1
SYMATTR Value 300k
SYMBOL res -1184 -32 R90
WINDOW 0 0 56 VBottom 2
WINDOW 3 32 56 VTop 2
SYMATTR InstName R10
SYMATTR Value 60
TEXT -1362 264 Left 2 !.tran 50u
