Version 4
SHEET 1 880 680
WIRE -64 -16 -64 -32
WIRE -64 -16 -176 -16
WIRE -64 32 -64 -16
WIRE 64 64 64 48
WIRE 96 64 64 64
WIRE 208 64 192 64
WIRE 32 80 32 -32
WIRE 64 80 64 64
WIRE 64 80 32 80
WIRE -176 112 -176 -16
WIRE -64 112 -176 112
WIRE -64 128 -64 112
WIRE 64 128 64 80
WIRE 208 128 208 64
WIRE -64 288 -64 208
WIRE 64 288 64 192
WIRE 64 288 -64 288
WIRE 208 288 208 208
WIRE 208 288 64 288
FLAG 64 288 0
SYMBOL cap 48 128 R0
SYMATTR InstName C1
SYMATTR Value 0.001p
SYMBOL voltage -64 112 R0
SYMATTR InstName V1
SYMATTR Value 50k
SYMBOL res 192 112 R0
SYMATTR InstName R1
SYMATTR Value 10k
SYMBOL ZZZ\\spark_gap\\spark_gap_AB -16 -32 R270
WINDOW 38 39 -14 Left 2
WINDOW 3 39 14 Left 2
WINDOW 123 39 42 Left 2
SYMATTR Value Vb_min={3000*P*d+135}
SYMATTR Value2 R0=1 Ron=10m V_fall=10 Tau=5u Vexp=130
SYMATTR InstName U2
TEXT -96 344 Left 2 !.tran 15u
TEXT 280 -224 Left 2 !.param P=1 d=0.1
