Version 4
SHEET 1 1316 708
WIRE -208 352 -272 352
WIRE -64 352 -128 352
WIRE 96 352 -64 352
WIRE 208 352 176 352
WIRE 336 352 208 352
WIRE 656 352 432 352
WIRE 208 432 208 352
WIRE 656 448 656 352
WIRE -272 464 -272 352
WIRE -64 464 -64 352
WIRE 992 512 848 512
WIRE 1104 512 992 512
WIRE 1248 512 1184 512
WIRE 656 544 656 528
WIRE 768 544 656 544
WIRE 848 544 848 512
WIRE 992 608 992 576
WIRE 1248 624 1248 592
WIRE -272 656 -272 544
WIRE -64 656 -64 528
WIRE -64 656 -272 656
WIRE 208 656 208 496
WIRE 208 656 -64 656
WIRE 512 656 208 656
WIRE 656 656 656 544
WIRE 656 656 592 656
WIRE 208 688 208 656
FLAG 208 688 0
FLAG 992 608 0
FLAG 1248 624 0
SYMBOL voltage -272 448 R0
WINDOW 123 0 0 Left 0
WINDOW 39 0 0 Left 0
SYMATTR InstName V1
SYMATTR Value 300k
SYMBOL cap 192 432 R0
SYMATTR InstName Ccharge1
SYMATTR Value 0.99p
SYMBOL ind 192 336 R90
WINDOW 0 5 56 VBottom 2
WINDOW 3 32 56 VTop 2
SYMATTR InstName L1
SYMATTR Value 0.007
SYMBOL res 640 432 R0
SYMATTR InstName R1
SYMATTR Value 5k
SYMBOL sg_model 384 352 R0
SYMATTR InstName X1
SYMBOL cap -80 464 R0
SYMATTR InstName Ceq1
SYMATTR Value 221.3p
SYMBOL res -112 336 R90
WINDOW 0 0 56 VBottom 2
WINDOW 3 32 56 VTop 2
SYMATTR InstName Rcharge1
SYMATTR Value 60
SYMBOL diode 1008 576 R180
WINDOW 0 24 64 Left 2
WINDOW 3 24 0 Left 2
SYMATTR InstName D1
SYMATTR Value RFN10NS8D
SYMATTR Description Schottky diode
SYMATTR Type schottky
SYMBOL res 864 528 R90
WINDOW 0 0 56 VBottom 2
WINDOW 3 32 56 VTop 2
SYMATTR InstName R3
SYMATTR Value 0.01
SYMBOL res 1232 496 R0
SYMATTR InstName R4
SYMATTR Value 10k
SYMBOL res 1200 496 R90
WINDOW 0 0 56 VBottom 2
WINDOW 3 32 56 VTop 2
SYMATTR InstName R5
SYMATTR Value 0.01
SYMBOL res 608 640 R90
WINDOW 0 0 56 VBottom 2
WINDOW 3 32 56 VTop 2
SYMATTR InstName R6
SYMATTR Value 5k
TEXT -464 24 Left 2 !.tran 0 20u 0
