Version 4
SHEET 1 2544 680
WIRE 480 0 416 0
WIRE 624 0 560 0
WIRE 784 0 624 0
WIRE 896 0 864 0
WIRE 1024 0 896 0
WIRE 1344 0 1120 0
WIRE 896 80 896 0
WIRE 1344 96 1344 0
WIRE 416 112 416 0
WIRE 624 112 624 0
WIRE 1344 208 1344 176
WIRE 416 304 416 192
WIRE 624 304 624 176
WIRE 624 304 416 304
WIRE 896 304 896 144
WIRE 896 304 624 304
WIRE 1344 304 1344 288
WIRE 1344 304 896 304
WIRE 896 336 896 304
FLAG 896 336 0
SYMBOL voltage 416 96 R0
WINDOW 123 0 0 Left 0
WINDOW 39 0 0 Left 0
SYMATTR InstName V1
SYMATTR Value 50k
SYMBOL cap 880 80 R0
SYMATTR InstName Ccharge
SYMATTR Value 0.99p
SYMBOL ind 880 -16 R90
WINDOW 0 5 56 VBottom 2
WINDOW 3 32 56 VTop 2
SYMATTR InstName L1
SYMATTR Value 0.007
SYMBOL res 1328 80 R0
SYMATTR InstName R1
SYMATTR Value 10k
SYMBOL sg_model 1072 0 R0
SYMATTR InstName X1
SYMBOL cap 608 112 R0
SYMATTR InstName Ceq
SYMATTR Value 221.3p
SYMBOL res 576 -16 R90
WINDOW 0 0 56 VBottom 2
WINDOW 3 32 56 VTop 2
SYMATTR InstName Rcharge
SYMATTR Value 10
SYMBOL res 1328 192 R0
SYMATTR InstName R2
SYMATTR Value 0.1
TEXT 224 -328 Left 2 !.tran 0 5m 0
