Version 4
SHEET 1 3848 708
WIRE 976 336 848 336
WIRE 1008 336 976 336
WIRE 1120 336 1088 336
WIRE 1152 336 1120 336
WIRE 1664 336 1232 336
WIRE -208 352 -272 352
WIRE -64 352 -128 352
WIRE 96 352 -64 352
WIRE 208 352 176 352
WIRE 336 352 208 352
WIRE 656 352 432 352
WIRE 976 368 976 336
WIRE 1120 368 1120 336
WIRE 1664 368 1664 336
WIRE 656 384 656 352
WIRE 208 432 208 352
WIRE -272 464 -272 352
WIRE -64 464 -64 352
WIRE 976 464 976 432
WIRE 1120 464 1120 432
WIRE 1120 464 976 464
WIRE 1664 464 1664 448
WIRE 1664 464 1120 464
WIRE 1120 512 1120 464
WIRE 656 544 656 464
WIRE 672 544 656 544
WIRE 768 544 752 544
WIRE 848 544 848 336
WIRE -272 656 -272 544
WIRE -64 656 -64 528
WIRE -64 656 -272 656
WIRE 208 656 208 496
WIRE 208 656 -64 656
WIRE 512 656 208 656
WIRE 656 656 656 544
WIRE 656 656 592 656
WIRE 208 688 208 656
FLAG 208 688 0
FLAG 1120 512 0
SYMBOL voltage -272 448 R0
WINDOW 123 0 0 Left 0
WINDOW 39 0 0 Left 0
SYMATTR InstName V1
SYMATTR Value 300k
SYMBOL cap 192 432 R0
SYMATTR InstName Ccharge1
SYMATTR Value 0.99p
SYMBOL ind 192 336 R90
WINDOW 0 5 56 VBottom 2
WINDOW 3 32 56 VTop 2
SYMATTR InstName L1
SYMATTR Value 0.007
SYMBOL res 640 368 R0
SYMATTR InstName Rl1
SYMATTR Value 10k
SYMBOL sg_model 384 352 R0
SYMATTR InstName X1
SYMBOL cap -80 464 R0
SYMATTR InstName Ceq1
SYMATTR Value 221.3p
SYMBOL res -112 336 R90
WINDOW 0 0 56 VBottom 2
WINDOW 3 32 56 VTop 2
SYMATTR InstName Rcharge1
SYMATTR Value 57
SYMBOL schottky 992 432 R180
WINDOW 0 24 64 Left 2
WINDOW 3 24 129 Left 2
SYMATTR InstName D1
SYMATTR Value RBR30NS30A
SYMBOL res 864 528 R90
WINDOW 0 0 56 VBottom 2
WINDOW 3 32 56 VTop 2
SYMATTR InstName R3
SYMATTR Value 60
SYMBOL res 1248 320 R90
WINDOW 0 0 56 VBottom 2
WINDOW 3 38 58 VTop 2
SYMATTR InstName RS1
SYMATTR Value 0.01
SYMBOL res 608 640 R90
WINDOW 0 0 56 VBottom 2
WINDOW 3 32 56 VTop 2
SYMATTR InstName Rl2
SYMATTR Value 1000K
SYMBOL res 768 528 R90
WINDOW 0 0 56 VBottom 2
WINDOW 3 32 56 VTop 2
SYMATTR InstName RS2
SYMATTR Value 0.01
SYMBOL cap 1104 368 R0
SYMATTR InstName C1
SYMATTR Value 1µ
SYMBOL ind 1104 320 R90
WINDOW 0 5 56 VBottom 2
WINDOW 3 32 56 VTop 2
SYMATTR InstName L2
SYMATTR Value 0.001p
SYMBOL res 1648 352 R0
SYMATTR InstName R1
SYMATTR Value 2
TEXT 544 208 Left 2 !.tran 0 5m 0
